/*--------------------------------*- C++ -*----------------------------------*\
| =========                 |                                                 |
| \\      /  F ield         | OpenFOAM: The Open Source CFD Toolbox           |
|  \\    /   O peration     | Version:  2.0.1                                 |
|   \\  /    A nd           | Web:      www.OpenFOAM.com                      |
|    \\/     M anipulation  |                                                 |
\*---------------------------------------------------------------------------*/
FoamFile
{
    version     2.0;
    format      ascii;
    class       dictionary;
    object      blockMeshDict;
}
// * * * * * * * * * * * * * * * * * * * * * * * * * * * * * * * * * * * * * //

convertToMeters 1;

lx0 x_min;
ly0 y_min;
lz0 z_min;

lx x_max;
ly y_max;
lz z_max;



vertices        
(
    ($lx0 	$ly0 	$lz0)
    ($lx 	$ly0 	$lz0)
    ($lx 	$ly 	$lz0)
    ($lx0 	$ly 	$lz0)
    ($lx0 	$ly0 	$lz)
    ($lx 	$ly0 	$lz)
    ($lx 	$ly 	$lz)
    ($lx0 	$ly 	$lz)
);

blocks          
(
    hex (0 1 2 3 4 5 6 7)  (nx ny nz) simpleGrading (1 1 1)  // (20 20 20) 
);

edges           
(
);

//patches  
boundary       
(

    outlet 
    {
        type patch;
        faces
        (
            (4 5 6 7)
        );
    }

    inlet 
    {
        type patch;
        faces
        (
            (0 3 2 1)
	);
    }

    walls
    {
	type patch;
	faces
	(
            (1 5 4 0)
	    (3 7 6 2)
            (0 4 7 3)
            (2 6 5 1)
	);
    }

);

mergePatchPairs 
(
);

// ************************************************************************* //
